<?xml version="1.0" encoding="UTF-8"?>

<!-- generated on 2023-12-19 19:22:17.051925 by randomTrips.py UNKNOWN
<configuration>
    <net-file value="nets/2x2/2x2.net.xml"/>
    <route-file value="nets/2x2/2x2-p40.rou.xml"/>
    <period value="40.0"/>
</configuration>
-->

<!-- generated on 2023-12-19 19:22:17 by Eclipse SUMO duarouter Version 1.19.0
<configuration xmlns:xsi="http://www.w3.org/2001/XMLSchema-instance" xsi:noNamespaceSchemaLocation="http://sumo.dlr.de/xsd/duarouterConfiguration.xsd">

    <input>
        <net-file value="nets/2x2/2x2.net.xml"/>
        <route-files value="trips.trips.xml"/>
    </input>

    <output>
        <output-file value="nets/2x2/2x2-p40.rou.xml"/>
        <alternatives-output value="NUL"/>
    </output>

    <time>
        <begin value="0"/>
        <end value="3600.0"/>
    </time>

    <report>
        <no-warnings value="true"/>
        <ignore-errors value="true"/>
        <no-step-log value="true"/>
    </report>

</configuration>
-->

<routes xmlns:xsi="http://www.w3.org/2001/XMLSchema-instance" xsi:noNamespaceSchemaLocation="http://sumo.dlr.de/xsd/routes_file.xsd">
    <vehicle id="0" depart="0.00">
        <route edges="h22 v12 -h12"/>
    </vehicle>
    <vehicle id="1" depart="40.00">
        <route edges="-v11 -h12 -v22 -h23"/>
    </vehicle>
    <vehicle id="2" depart="80.00">
        <route edges="h23 h22 h21"/>
    </vehicle>
    <vehicle id="3" depart="120.00">
        <route edges="v22 -h13"/>
    </vehicle>
    <vehicle id="4" depart="160.00">
        <route edges="-v21 -v22 h22 v12 -h12"/>
    </vehicle>
    <vehicle id="5" depart="200.00">
        <route edges="-h22 v22 h12 h11"/>
    </vehicle>
    <vehicle id="6" depart="240.00">
        <route edges="-h11 -h12 -v22 -h23"/>
    </vehicle>
    <vehicle id="7" depart="280.00">
        <route edges="h22 v12 h11"/>
    </vehicle>
    <vehicle id="8" depart="320.00">
        <route edges="-h22 v22 h12"/>
    </vehicle>
    <vehicle id="9" depart="360.00">
        <route edges="v12 -h12"/>
    </vehicle>
    <vehicle id="10" depart="400.00">
        <route edges="v12 -h12 -v22 h22"/>
    </vehicle>
    <vehicle id="11" depart="440.00">
        <route edges="-v12 -h22"/>
    </vehicle>
    <vehicle id="12" depart="480.00">
        <route edges="v23 h22 -v13"/>
    </vehicle>
    <vehicle id="13" depart="520.00">
        <route edges="-h12 -h13"/>
    </vehicle>
    <vehicle id="14" depart="560.00">
        <route edges="v13 -h22 v22 h12"/>
    </vehicle>
    <vehicle id="15" depart="600.00">
        <route edges="v12 -h12 -v22 h22"/>
    </vehicle>
    <vehicle id="16" depart="640.00">
        <route edges="h12 -v12 -h22 v22"/>
    </vehicle>
    <vehicle id="17" depart="680.00">
        <route edges="-v21 h12 h11"/>
    </vehicle>
    <vehicle id="18" depart="720.00">
        <route edges="v13 -h22 v22 h12"/>
    </vehicle>
    <vehicle id="19" depart="760.00">
        <route edges="v13 -h22 v22 h12"/>
    </vehicle>
    <vehicle id="20" depart="800.00">
        <route edges="h23 h22 v12 -h12"/>
    </vehicle>
    <vehicle id="21" depart="840.00">
        <route edges="-h22 v22 h12 -v12"/>
    </vehicle>
    <vehicle id="22" depart="880.00">
        <route edges="-h12 -v22 -h23"/>
    </vehicle>
    <vehicle id="24" depart="960.00">
        <route edges="h22 -v13"/>
    </vehicle>
    <vehicle id="25" depart="1000.00">
        <route edges="-v12 -h22 -h23"/>
    </vehicle>
    <vehicle id="26" depart="1040.00">
        <route edges="-v11 -h12 v21"/>
    </vehicle>
    <vehicle id="28" depart="1120.00">
        <route edges="-h21 v12 -h12 -v22 h22"/>
    </vehicle>
    <vehicle id="29" depart="1160.00">
        <route edges="-h21 v12 -h12 -v22"/>
    </vehicle>
    <vehicle id="30" depart="1200.00">
        <route edges="v23 h22 h21"/>
    </vehicle>
    <vehicle id="31" depart="1240.00">
        <route edges="h12 -v12 h21"/>
    </vehicle>
    <vehicle id="32" depart="1280.00">
        <route edges="v13 v12 v11"/>
    </vehicle>
    <vehicle id="34" depart="1360.00">
        <route edges="-v12"/>
    </vehicle>
    <vehicle id="35" depart="1400.00">
        <route edges="-h22 v22"/>
    </vehicle>
    <vehicle id="36" depart="1440.00">
        <route edges="v22 h12 -v12 -v13"/>
    </vehicle>
    <vehicle id="37" depart="1480.00">
        <route edges="h22 v12 -h12 -v22"/>
    </vehicle>
    <vehicle id="38" depart="1520.00">
        <route edges="v22 h12 -v12 -h22 -v23"/>
    </vehicle>
    <vehicle id="39" depart="1560.00">
        <route edges="-v11 -h12 -v22 -h23"/>
    </vehicle>
    <vehicle id="40" depart="1600.00">
        <route edges="h12 -v12"/>
    </vehicle>
    <vehicle id="41" depart="1640.00">
        <route edges="h13 v21"/>
    </vehicle>
    <vehicle id="42" depart="1680.00">
        <route edges="-v21 -v22 -h23"/>
    </vehicle>
    <vehicle id="43" depart="1720.00">
        <route edges="v23 h22 v12 h11"/>
    </vehicle>
    <vehicle id="44" depart="1760.00">
        <route edges="-h12"/>
    </vehicle>
    <vehicle id="45" depart="1800.00">
        <route edges="-h12 -v22 h22 h21"/>
    </vehicle>
    <vehicle id="46" depart="1840.00">
        <route edges="v12 -h12 -v22"/>
    </vehicle>
    <vehicle id="47" depart="1880.00">
        <route edges="-h12 -v22"/>
    </vehicle>
    <vehicle id="48" depart="1920.00">
        <route edges="v23 h22 v12 h11"/>
    </vehicle>
    <vehicle id="49" depart="1960.00">
        <route edges="v23 h22 v12"/>
    </vehicle>
    <vehicle id="50" depart="2000.00">
        <route edges="-h11 -h12 -v22 h22"/>
    </vehicle>
    <vehicle id="51" depart="2040.00">
        <route edges="h22 v12 h11"/>
    </vehicle>
    <vehicle id="52" depart="2080.00">
        <route edges="-v11 -v12 h21"/>
    </vehicle>
    <vehicle id="53" depart="2120.00">
        <route edges="-h12 -v22"/>
    </vehicle>
    <vehicle id="55" depart="2200.00">
        <route edges="v22 h12 -v12"/>
    </vehicle>
    <vehicle id="56" depart="2240.00">
        <route edges="h12 -v12 -h22"/>
    </vehicle>
    <vehicle id="58" depart="2320.00">
        <route edges="-v11 -v12 h21"/>
    </vehicle>
    <vehicle id="59" depart="2360.00">
        <route edges="h13 h12 -v12 -h22"/>
    </vehicle>
    <vehicle id="60" depart="2400.00">
        <route edges="v12 h11"/>
    </vehicle>
    <vehicle id="61" depart="2440.00">
        <route edges="v12 h11"/>
    </vehicle>
    <vehicle id="62" depart="2480.00">
        <route edges="-h11 -v12 -v13"/>
    </vehicle>
    <vehicle id="63" depart="2520.00">
        <route edges="-h11 -h12 v21"/>
    </vehicle>
    <vehicle id="65" depart="2600.00">
        <route edges="-v11 -h12"/>
    </vehicle>
    <vehicle id="66" depart="2640.00">
        <route edges="v22"/>
    </vehicle>
    <vehicle id="67" depart="2680.00">
        <route edges="-h12 -v22 -v23"/>
    </vehicle>
    <vehicle id="68" depart="2720.00">
        <route edges="-h12 -v22 h22 v12 v11"/>
    </vehicle>
    <vehicle id="70" depart="2800.00">
        <route edges="-v22 h22 v12 h11"/>
    </vehicle>
    <vehicle id="71" depart="2840.00">
        <route edges="-v11 -h12 -v22 h22 v12"/>
    </vehicle>
    <vehicle id="72" depart="2880.00">
        <route edges="-v21 -v22 -h23"/>
    </vehicle>
    <vehicle id="74" depart="2960.00">
        <route edges="-h22 v22 h12 -v12"/>
    </vehicle>
    <vehicle id="75" depart="3000.00">
        <route edges="v23 h22 h21"/>
    </vehicle>
    <vehicle id="76" depart="3040.00">
        <route edges="-v22 h22 v12 h11"/>
    </vehicle>
    <vehicle id="77" depart="3080.00">
        <route edges="-h12 -v22 -h23"/>
    </vehicle>
    <vehicle id="78" depart="3120.00">
        <route edges="-v12 -h22 v22 h12"/>
    </vehicle>
    <vehicle id="79" depart="3160.00">
        <route edges="-h22 -h23"/>
    </vehicle>
    <vehicle id="80" depart="3200.00">
        <route edges="-h12 -v22 h22 h21"/>
    </vehicle>
    <vehicle id="81" depart="3240.00">
        <route edges="-h22 v22 v21"/>
    </vehicle>
    <vehicle id="82" depart="3280.00">
        <route edges="v13 -h22 v22 -h13"/>
    </vehicle>
    <vehicle id="83" depart="3320.00">
        <route edges="-h22 v22 h12 -v12 h21"/>
    </vehicle>
    <vehicle id="84" depart="3360.00">
        <route edges="-h22"/>
    </vehicle>
    <vehicle id="85" depart="3400.00">
        <route edges="v22 h12"/>
    </vehicle>
    <vehicle id="86" depart="3440.00">
        <route edges="-v22 h22 v12 v11"/>
    </vehicle>
    <vehicle id="87" depart="3480.00">
        <route edges="v12 -h12 -v22 -h23"/>
    </vehicle>
    <vehicle id="88" depart="3520.00">
        <route edges="-h12 -v22"/>
    </vehicle>
    <vehicle id="89" depart="3560.00">
        <route edges="-v21 -v22 -v23"/>
    </vehicle>
</routes>
