<?xml version="1.0" encoding="UTF-8"?>

<!-- generated on 2023-12-19 20:15:44.793229 by randomTrips.py UNKNOWN
<configuration>
    <net-file value="nets/2x2/2x2.net.xml"/>
    <route-file value="nets/2x2/2x2-p50.rou.xml"/>
    <period value="50.0"/>
</configuration>
-->

<!-- generated on 2023-12-19 20:15:44 by Eclipse SUMO duarouter Version 1.19.0
<configuration xmlns:xsi="http://www.w3.org/2001/XMLSchema-instance" xsi:noNamespaceSchemaLocation="http://sumo.dlr.de/xsd/duarouterConfiguration.xsd">

    <input>
        <net-file value="nets/2x2/2x2.net.xml"/>
        <route-files value="trips.trips.xml"/>
    </input>

    <output>
        <output-file value="nets/2x2/2x2-p50.rou.xml"/>
        <alternatives-output value="NUL"/>
    </output>

    <time>
        <begin value="0"/>
        <end value="3600.0"/>
    </time>

    <report>
        <no-warnings value="true"/>
        <ignore-errors value="true"/>
        <no-step-log value="true"/>
    </report>

</configuration>
-->

<routes xmlns:xsi="http://www.w3.org/2001/XMLSchema-instance" xsi:noNamespaceSchemaLocation="http://sumo.dlr.de/xsd/routes_file.xsd">
    <vehicle id="0" depart="0.00">
        <route edges="h22 v12 -h12"/>
    </vehicle>
    <vehicle id="1" depart="50.00">
        <route edges="-v11 -h12 -v22 -h23"/>
    </vehicle>
    <vehicle id="2" depart="100.00">
        <route edges="h23 h22 h21"/>
    </vehicle>
    <vehicle id="3" depart="150.00">
        <route edges="v22 -h13"/>
    </vehicle>
    <vehicle id="4" depart="200.00">
        <route edges="-v21 -v22 h22 v12 -h12"/>
    </vehicle>
    <vehicle id="5" depart="250.00">
        <route edges="-h22 v22 h12 h11"/>
    </vehicle>
    <vehicle id="6" depart="300.00">
        <route edges="-h11 -h12 -v22 -h23"/>
    </vehicle>
    <vehicle id="7" depart="350.00">
        <route edges="h22 v12 h11"/>
    </vehicle>
    <vehicle id="8" depart="400.00">
        <route edges="-h22 v22 h12"/>
    </vehicle>
    <vehicle id="9" depart="450.00">
        <route edges="v12 -h12"/>
    </vehicle>
    <vehicle id="10" depart="500.00">
        <route edges="v12 -h12 -v22 h22"/>
    </vehicle>
    <vehicle id="11" depart="550.00">
        <route edges="-v12 -h22"/>
    </vehicle>
    <vehicle id="12" depart="600.00">
        <route edges="v23 h22 -v13"/>
    </vehicle>
    <vehicle id="13" depart="650.00">
        <route edges="-h12 -h13"/>
    </vehicle>
    <vehicle id="14" depart="700.00">
        <route edges="v13 -h22 v22 h12"/>
    </vehicle>
    <vehicle id="15" depart="750.00">
        <route edges="v12 -h12 -v22 h22"/>
    </vehicle>
    <vehicle id="16" depart="800.00">
        <route edges="h12 -v12 -h22 v22"/>
    </vehicle>
    <vehicle id="17" depart="850.00">
        <route edges="-v21 h12 h11"/>
    </vehicle>
    <vehicle id="18" depart="900.00">
        <route edges="v13 -h22 v22 h12"/>
    </vehicle>
    <vehicle id="19" depart="950.00">
        <route edges="v13 -h22 v22 h12"/>
    </vehicle>
    <vehicle id="20" depart="1000.00">
        <route edges="h23 h22 v12 -h12"/>
    </vehicle>
    <vehicle id="21" depart="1050.00">
        <route edges="-h22 v22 h12 -v12"/>
    </vehicle>
    <vehicle id="22" depart="1100.00">
        <route edges="-h12 -v22 -h23"/>
    </vehicle>
    <vehicle id="24" depart="1200.00">
        <route edges="h22 -v13"/>
    </vehicle>
    <vehicle id="25" depart="1250.00">
        <route edges="-v12 -h22 -h23"/>
    </vehicle>
    <vehicle id="26" depart="1300.00">
        <route edges="-v11 -h12 v21"/>
    </vehicle>
    <vehicle id="28" depart="1400.00">
        <route edges="-h21 v12 -h12 -v22 h22"/>
    </vehicle>
    <vehicle id="29" depart="1450.00">
        <route edges="-h21 v12 -h12 -v22"/>
    </vehicle>
    <vehicle id="30" depart="1500.00">
        <route edges="v23 h22 h21"/>
    </vehicle>
    <vehicle id="31" depart="1550.00">
        <route edges="h12 -v12 h21"/>
    </vehicle>
    <vehicle id="32" depart="1600.00">
        <route edges="v13 v12 v11"/>
    </vehicle>
    <vehicle id="34" depart="1700.00">
        <route edges="-v12"/>
    </vehicle>
    <vehicle id="35" depart="1750.00">
        <route edges="-h22 v22"/>
    </vehicle>
    <vehicle id="36" depart="1800.00">
        <route edges="v22 h12 -v12 -v13"/>
    </vehicle>
    <vehicle id="37" depart="1850.00">
        <route edges="h22 v12 -h12 -v22"/>
    </vehicle>
    <vehicle id="38" depart="1900.00">
        <route edges="v22 h12 -v12 -h22 -v23"/>
    </vehicle>
    <vehicle id="39" depart="1950.00">
        <route edges="-v11 -h12 -v22 -h23"/>
    </vehicle>
    <vehicle id="40" depart="2000.00">
        <route edges="h12 -v12"/>
    </vehicle>
    <vehicle id="41" depart="2050.00">
        <route edges="h13 v21"/>
    </vehicle>
    <vehicle id="42" depart="2100.00">
        <route edges="-v21 -v22 -h23"/>
    </vehicle>
    <vehicle id="43" depart="2150.00">
        <route edges="v23 h22 v12 h11"/>
    </vehicle>
    <vehicle id="44" depart="2200.00">
        <route edges="-h12"/>
    </vehicle>
    <vehicle id="45" depart="2250.00">
        <route edges="-h12 -v22 h22 h21"/>
    </vehicle>
    <vehicle id="46" depart="2300.00">
        <route edges="v12 -h12 -v22"/>
    </vehicle>
    <vehicle id="47" depart="2350.00">
        <route edges="-h12 -v22"/>
    </vehicle>
    <vehicle id="48" depart="2400.00">
        <route edges="v23 h22 v12 h11"/>
    </vehicle>
    <vehicle id="49" depart="2450.00">
        <route edges="v23 h22 v12"/>
    </vehicle>
    <vehicle id="50" depart="2500.00">
        <route edges="-h11 -h12 -v22 h22"/>
    </vehicle>
    <vehicle id="51" depart="2550.00">
        <route edges="h22 v12 h11"/>
    </vehicle>
    <vehicle id="52" depart="2600.00">
        <route edges="-v11 -v12 h21"/>
    </vehicle>
    <vehicle id="53" depart="2650.00">
        <route edges="-h12 -v22"/>
    </vehicle>
    <vehicle id="55" depart="2750.00">
        <route edges="v22 h12 -v12"/>
    </vehicle>
    <vehicle id="56" depart="2800.00">
        <route edges="h12 -v12 -h22"/>
    </vehicle>
    <vehicle id="58" depart="2900.00">
        <route edges="-v11 -v12 h21"/>
    </vehicle>
    <vehicle id="59" depart="2950.00">
        <route edges="h13 h12 -v12 -h22"/>
    </vehicle>
    <vehicle id="60" depart="3000.00">
        <route edges="v12 h11"/>
    </vehicle>
    <vehicle id="61" depart="3050.00">
        <route edges="v12 h11"/>
    </vehicle>
    <vehicle id="62" depart="3100.00">
        <route edges="-h11 -v12 -v13"/>
    </vehicle>
    <vehicle id="63" depart="3150.00">
        <route edges="-h11 -h12 v21"/>
    </vehicle>
    <vehicle id="65" depart="3250.00">
        <route edges="-v11 -h12"/>
    </vehicle>
    <vehicle id="66" depart="3300.00">
        <route edges="v22"/>
    </vehicle>
    <vehicle id="67" depart="3350.00">
        <route edges="-h12 -v22 -v23"/>
    </vehicle>
    <vehicle id="68" depart="3400.00">
        <route edges="-h12 -v22 h22 v12 v11"/>
    </vehicle>
    <vehicle id="70" depart="3500.00">
        <route edges="-v22 h22 v12 h11"/>
    </vehicle>
    <vehicle id="71" depart="3550.00">
        <route edges="-v11 -h12 -v22 h22 v12"/>
    </vehicle>
</routes>
