<?xml version="1.0" encoding="UTF-8"?>

<!-- generated on 2023-12-14 11:44:10.685512 by randomTrips.py UNKNOWN
<configuration>
    <net-file value="nets/2x2/2x2.net.xml"/>
    <route-file value="nets/2x2/2x2-p30.rou.xml"/>
    <period value="30.0"/>
</configuration>
-->

<!-- generated on 2023-12-14 11:44:10 by Eclipse SUMO duarouter Version 1.19.0
<configuration xmlns:xsi="http://www.w3.org/2001/XMLSchema-instance" xsi:noNamespaceSchemaLocation="http://sumo.dlr.de/xsd/duarouterConfiguration.xsd">

    <input>
        <net-file value="nets/2x2/2x2.net.xml"/>
        <route-files value="trips.trips.xml"/>
    </input>

    <output>
        <output-file value="nets/2x2/2x2-p30.rou.xml"/>
        <alternatives-output value="NUL"/>
    </output>

    <time>
        <begin value="0"/>
        <end value="3600.0"/>
    </time>

    <report>
        <no-warnings value="true"/>
        <ignore-errors value="true"/>
        <no-step-log value="true"/>
    </report>

</configuration>
-->

<routes xmlns:xsi="http://www.w3.org/2001/XMLSchema-instance" xsi:noNamespaceSchemaLocation="http://sumo.dlr.de/xsd/routes_file.xsd">
    <vehicle id="0" depart="0.00">
        <route edges="h22 v12 -h12"/>
    </vehicle>
    <vehicle id="1" depart="30.00">
        <route edges="-v11 -h12 -v22 -h23"/>
    </vehicle>
    <vehicle id="2" depart="60.00">
        <route edges="h23 h22 h21"/>
    </vehicle>
    <vehicle id="3" depart="90.00">
        <route edges="v22 -h13"/>
    </vehicle>
    <vehicle id="4" depart="120.00">
        <route edges="-v21 -v22 h22 v12 -h12"/>
    </vehicle>
    <vehicle id="5" depart="150.00">
        <route edges="-h22 v22 h12 h11"/>
    </vehicle>
    <vehicle id="6" depart="180.00">
        <route edges="-h11 -h12 -v22 -h23"/>
    </vehicle>
    <vehicle id="7" depart="210.00">
        <route edges="h22 v12 h11"/>
    </vehicle>
    <vehicle id="8" depart="240.00">
        <route edges="-h22 v22 h12"/>
    </vehicle>
    <vehicle id="9" depart="270.00">
        <route edges="v12 -h12"/>
    </vehicle>
    <vehicle id="10" depart="300.00">
        <route edges="v12 -h12 -v22 h22"/>
    </vehicle>
    <vehicle id="11" depart="330.00">
        <route edges="-v12 -h22"/>
    </vehicle>
    <vehicle id="12" depart="360.00">
        <route edges="v23 h22 -v13"/>
    </vehicle>
    <vehicle id="13" depart="390.00">
        <route edges="-h12 -h13"/>
    </vehicle>
    <vehicle id="14" depart="420.00">
        <route edges="v13 -h22 v22 h12"/>
    </vehicle>
    <vehicle id="15" depart="450.00">
        <route edges="v12 -h12 -v22 h22"/>
    </vehicle>
    <vehicle id="16" depart="480.00">
        <route edges="h12 -v12 -h22 v22"/>
    </vehicle>
    <vehicle id="17" depart="510.00">
        <route edges="-v21 h12 h11"/>
    </vehicle>
    <vehicle id="18" depart="540.00">
        <route edges="v13 -h22 v22 h12"/>
    </vehicle>
    <vehicle id="19" depart="570.00">
        <route edges="v13 -h22 v22 h12"/>
    </vehicle>
    <vehicle id="20" depart="600.00">
        <route edges="h23 h22 v12 -h12"/>
    </vehicle>
    <vehicle id="21" depart="630.00">
        <route edges="-h22 v22 h12 -v12"/>
    </vehicle>
    <vehicle id="22" depart="660.00">
        <route edges="-h12 -v22 -h23"/>
    </vehicle>
    <vehicle id="24" depart="720.00">
        <route edges="h22 -v13"/>
    </vehicle>
    <vehicle id="25" depart="750.00">
        <route edges="-v12 -h22 -h23"/>
    </vehicle>
    <vehicle id="26" depart="780.00">
        <route edges="-v11 -h12 v21"/>
    </vehicle>
    <vehicle id="28" depart="840.00">
        <route edges="-h21 v12 -h12 -v22 h22"/>
    </vehicle>
    <vehicle id="29" depart="870.00">
        <route edges="-h21 v12 -h12 -v22"/>
    </vehicle>
    <vehicle id="30" depart="900.00">
        <route edges="v23 h22 h21"/>
    </vehicle>
    <vehicle id="31" depart="930.00">
        <route edges="h12 -v12 h21"/>
    </vehicle>
    <vehicle id="32" depart="960.00">
        <route edges="v13 v12 v11"/>
    </vehicle>
    <vehicle id="34" depart="1020.00">
        <route edges="-v12"/>
    </vehicle>
    <vehicle id="35" depart="1050.00">
        <route edges="-h22 v22"/>
    </vehicle>
    <vehicle id="36" depart="1080.00">
        <route edges="v22 h12 -v12 -v13"/>
    </vehicle>
    <vehicle id="37" depart="1110.00">
        <route edges="h22 v12 -h12 -v22"/>
    </vehicle>
    <vehicle id="38" depart="1140.00">
        <route edges="v22 h12 -v12 -h22 -v23"/>
    </vehicle>
    <vehicle id="39" depart="1170.00">
        <route edges="-v11 -h12 -v22 -h23"/>
    </vehicle>
    <vehicle id="40" depart="1200.00">
        <route edges="h12 -v12"/>
    </vehicle>
    <vehicle id="41" depart="1230.00">
        <route edges="h13 v21"/>
    </vehicle>
    <vehicle id="42" depart="1260.00">
        <route edges="-v21 -v22 -h23"/>
    </vehicle>
    <vehicle id="43" depart="1290.00">
        <route edges="v23 h22 v12 h11"/>
    </vehicle>
    <vehicle id="44" depart="1320.00">
        <route edges="-h12"/>
    </vehicle>
    <vehicle id="45" depart="1350.00">
        <route edges="-h12 -v22 h22 h21"/>
    </vehicle>
    <vehicle id="46" depart="1380.00">
        <route edges="v12 -h12 -v22"/>
    </vehicle>
    <vehicle id="47" depart="1410.00">
        <route edges="-h12 -v22"/>
    </vehicle>
    <vehicle id="48" depart="1440.00">
        <route edges="v23 h22 v12 h11"/>
    </vehicle>
    <vehicle id="49" depart="1470.00">
        <route edges="v23 h22 v12"/>
    </vehicle>
    <vehicle id="50" depart="1500.00">
        <route edges="-h11 -h12 -v22 h22"/>
    </vehicle>
    <vehicle id="51" depart="1530.00">
        <route edges="h22 v12 h11"/>
    </vehicle>
    <vehicle id="52" depart="1560.00">
        <route edges="-v11 -v12 h21"/>
    </vehicle>
    <vehicle id="53" depart="1590.00">
        <route edges="-h12 -v22"/>
    </vehicle>
    <vehicle id="55" depart="1650.00">
        <route edges="v22 h12 -v12"/>
    </vehicle>
    <vehicle id="56" depart="1680.00">
        <route edges="h12 -v12 -h22"/>
    </vehicle>
    <vehicle id="58" depart="1740.00">
        <route edges="-v11 -v12 h21"/>
    </vehicle>
    <vehicle id="59" depart="1770.00">
        <route edges="h13 h12 -v12 -h22"/>
    </vehicle>
    <vehicle id="60" depart="1800.00">
        <route edges="v12 h11"/>
    </vehicle>
    <vehicle id="61" depart="1830.00">
        <route edges="v12 h11"/>
    </vehicle>
    <vehicle id="62" depart="1860.00">
        <route edges="-h11 -v12 -v13"/>
    </vehicle>
    <vehicle id="63" depart="1890.00">
        <route edges="-h11 -h12 v21"/>
    </vehicle>
    <vehicle id="65" depart="1950.00">
        <route edges="-v11 -h12"/>
    </vehicle>
    <vehicle id="66" depart="1980.00">
        <route edges="v22"/>
    </vehicle>
    <vehicle id="67" depart="2010.00">
        <route edges="-h12 -v22 -v23"/>
    </vehicle>
    <vehicle id="68" depart="2040.00">
        <route edges="-h12 -v22 h22 v12 v11"/>
    </vehicle>
    <vehicle id="70" depart="2100.00">
        <route edges="-v22 h22 v12 h11"/>
    </vehicle>
    <vehicle id="71" depart="2130.00">
        <route edges="-v11 -h12 -v22 h22 v12"/>
    </vehicle>
    <vehicle id="72" depart="2160.00">
        <route edges="-v21 -v22 -h23"/>
    </vehicle>
    <vehicle id="74" depart="2220.00">
        <route edges="-h22 v22 h12 -v12"/>
    </vehicle>
    <vehicle id="75" depart="2250.00">
        <route edges="v23 h22 h21"/>
    </vehicle>
    <vehicle id="76" depart="2280.00">
        <route edges="-v22 h22 v12 h11"/>
    </vehicle>
    <vehicle id="77" depart="2310.00">
        <route edges="-h12 -v22 -h23"/>
    </vehicle>
    <vehicle id="78" depart="2340.00">
        <route edges="-v12 -h22 v22 h12"/>
    </vehicle>
    <vehicle id="79" depart="2370.00">
        <route edges="-h22 -h23"/>
    </vehicle>
    <vehicle id="80" depart="2400.00">
        <route edges="-h12 -v22 h22 h21"/>
    </vehicle>
    <vehicle id="81" depart="2430.00">
        <route edges="-h22 v22 v21"/>
    </vehicle>
    <vehicle id="82" depart="2460.00">
        <route edges="v13 -h22 v22 -h13"/>
    </vehicle>
    <vehicle id="83" depart="2490.00">
        <route edges="-h22 v22 h12 -v12 h21"/>
    </vehicle>
    <vehicle id="84" depart="2520.00">
        <route edges="-h22"/>
    </vehicle>
    <vehicle id="85" depart="2550.00">
        <route edges="v22 h12"/>
    </vehicle>
    <vehicle id="86" depart="2580.00">
        <route edges="-v22 h22 v12 v11"/>
    </vehicle>
    <vehicle id="87" depart="2610.00">
        <route edges="v12 -h12 -v22 -h23"/>
    </vehicle>
    <vehicle id="88" depart="2640.00">
        <route edges="-h12 -v22"/>
    </vehicle>
    <vehicle id="89" depart="2670.00">
        <route edges="-v21 -v22 -v23"/>
    </vehicle>
    <vehicle id="90" depart="2700.00">
        <route edges="h23 h22 h21"/>
    </vehicle>
    <vehicle id="91" depart="2730.00">
        <route edges="v23 v22 -h13"/>
    </vehicle>
    <vehicle id="92" depart="2760.00">
        <route edges="-v21 -v22 h22 -v13"/>
    </vehicle>
    <vehicle id="93" depart="2790.00">
        <route edges="v13 -h22 -h23"/>
    </vehicle>
    <vehicle id="94" depart="2820.00">
        <route edges="-h22 -v23"/>
    </vehicle>
    <vehicle id="95" depart="2850.00">
        <route edges="-v21 h12 -v12"/>
    </vehicle>
    <vehicle id="96" depart="2880.00">
        <route edges="-h22 v22 v21"/>
    </vehicle>
    <vehicle id="97" depart="2910.00">
        <route edges="-v22 h22 v12"/>
    </vehicle>
    <vehicle id="99" depart="2970.00">
        <route edges="v23 h22 v12"/>
    </vehicle>
    <vehicle id="100" depart="3000.00">
        <route edges="v23 v22 v21"/>
    </vehicle>
    <vehicle id="101" depart="3030.00">
        <route edges="v13 -h22"/>
    </vehicle>
    <vehicle id="102" depart="3060.00">
        <route edges="-v22 -h23"/>
    </vehicle>
    <vehicle id="103" depart="3090.00">
        <route edges="-v21 -v22 h22 v12 -h12"/>
    </vehicle>
    <vehicle id="104" depart="3120.00">
        <route edges="-v21 h12 -v12 -h22 v22"/>
    </vehicle>
    <vehicle id="105" depart="3150.00">
        <route edges="-v11 -h12 -v22 h22 v12 v11"/>
    </vehicle>
    <vehicle id="106" depart="3180.00">
        <route edges="-v22"/>
    </vehicle>
    <vehicle id="107" depart="3210.00">
        <route edges="v23 v22"/>
    </vehicle>
    <vehicle id="109" depart="3270.00">
        <route edges="-h21 -h22 v22 h12 -v12"/>
    </vehicle>
    <vehicle id="110" depart="3300.00">
        <route edges="v23 v22 h12"/>
    </vehicle>
    <vehicle id="112" depart="3360.00">
        <route edges="-h11 -v12 -h22 v22 h12"/>
    </vehicle>
    <vehicle id="114" depart="3420.00">
        <route edges="-h21 -h22 v22"/>
    </vehicle>
    <vehicle id="116" depart="3480.00">
        <route edges="h13 -v22 h22 h21"/>
    </vehicle>
    <vehicle id="117" depart="3510.00">
        <route edges="-h22 v22 -h13"/>
    </vehicle>
    <vehicle id="118" depart="3540.00">
        <route edges="v22 h12 -v12 -h22 -h23"/>
    </vehicle>
    <vehicle id="119" depart="3570.00">
        <route edges="h13 h12"/>
    </vehicle>
</routes>
